<?xml version="1.0" encoding="UTF-8"?>

<!-- generated on 2023-05-10 08:15:01 by Eclipse SUMO netconvert Version 1.16.0
<configuration xmlns:xsi="http://www.w3.org/2001/XMLSchema-instance" xsi:noNamespaceSchemaLocation="http://sumo.dlr.de/xsd/netconvertConfiguration.xsd">

    <input>
        <node-files value="nodes.nod.xml"/>
        <edge-files value="edges.edg.xml"/>
        <connection-files value="connections.con.xml"/>
        <type-files value="types.type.xml"/>
    </input>

    <output>
        <output-file value="nets.net.xml"/>
    </output>

</configuration>
-->

<net version="1.16" junctionCornerDetail="5" limitTurnSpeed="5.50" xmlns:xsi="http://www.w3.org/2001/XMLSchema-instance" xsi:noNamespaceSchemaLocation="http://sumo.dlr.de/xsd/net_file.xsd">

    <location netOffset="750.00,0.00" convBoundary="0.00,0.00,1500.00,750.00" origBoundary="-750.00,0.00,750.00,750.00" projParameter="!"/>

    <type id="DE2TL" priority="2" numLanes="2" speed="15.00"/>
    <type id="TL2DE" priority="2" numLanes="2" speed="15.00"/>

    <edge id=":n1_0" function="internal">
        <lane id=":n1_0_0" index="0" speed="3.65" length="4.67" shape="0.00,1.60 -1.20,0.80 -1.60,0.00 -1.20,-0.80 0.00,-1.60"/>
    </edge>
    <edge id=":n2_0" function="internal">
        <lane id=":n2_0_0" index="0" speed="3.65" length="4.67" shape="751.60,750.00 750.80,751.20 750.00,751.60 749.20,751.20 748.40,750.00"/>
    </edge>
    <edge id=":n3_0" function="internal">
        <lane id=":n3_0_0" index="0" speed="3.65" length="4.67" shape="1500.00,-1.60 1501.20,-0.80 1501.60,0.00 1501.20,0.80 1500.00,1.60"/>
    </edge>
    <edge id=":n4_0" function="internal">
        <lane id=":n4_0_0" index="0" speed="6.51" length="9.03" shape="745.20,10.40 744.85,7.95 743.80,6.20 742.05,5.15 739.60,4.80"/>
    </edge>
    <edge id=":n4_1" function="internal">
        <lane id=":n4_1_0" index="0" speed="9.26" length="19.35" shape="748.40,10.40 749.15,5.15 751.40,1.40 755.15,-0.85 760.40,-1.60"/>
    </edge>
    <edge id=":n4_2" function="internal">
        <lane id=":n4_2_0" index="0" speed="6.51" length="9.03" shape="760.40,4.80 757.95,5.15 756.20,6.20 755.15,7.95 754.80,10.40"/>
    </edge>
    <edge id=":n4_3" function="internal">
        <lane id=":n4_3_0" index="0" speed="15.00" length="20.80" shape="760.40,1.60 739.60,1.60"/>
    </edge>
    <edge id=":n4_4" function="internal">
        <lane id=":n4_4_0" index="0" speed="15.00" length="20.80" shape="739.60,-4.80 760.40,-4.80"/>
    </edge>
    <edge id=":n4_5" function="internal">
        <lane id=":n4_5_0" index="0" speed="9.26" length="5.01" shape="739.60,-1.60 744.56,-0.89"/>
    </edge>
    <edge id=":n4_6" function="internal">
        <lane id=":n4_6_0" index="0" speed="9.26" length="14.34" shape="744.56,-0.89 744.85,-0.85 748.60,1.40 750.85,5.15 751.60,10.40"/>
    </edge>

    <edge id="1to4" from="n1" to="n4" priority="2" type="DE2TL">
        <lane id="1to4_0" index="0" speed="15.00" length="739.60" shape="0.00,-4.80 739.60,-4.80"/>
        <lane id="1to4_1" index="1" speed="15.00" length="739.60" shape="0.00,-1.60 739.60,-1.60"/>
    </edge>
    <edge id="2to4" from="n2" to="n4" priority="2" type="DE2TL">
        <lane id="2to4_0" index="0" speed="15.00" length="739.60" shape="745.20,750.00 745.20,10.40"/>
        <lane id="2to4_1" index="1" speed="15.00" length="739.60" shape="748.40,750.00 748.40,10.40"/>
    </edge>
    <edge id="3to4" from="n3" to="n4" priority="2" type="DE2TL">
        <lane id="3to4_0" index="0" speed="15.00" length="739.60" shape="1500.00,4.80 760.40,4.80"/>
        <lane id="3to4_1" index="1" speed="15.00" length="739.60" shape="1500.00,1.60 760.40,1.60"/>
    </edge>
    <edge id="4to1" from="n4" to="n1" priority="2" type="TL2DE">
        <lane id="4to1_0" index="0" speed="15.00" length="739.60" shape="739.60,4.80 0.00,4.80"/>
        <lane id="4to1_1" index="1" speed="15.00" length="739.60" shape="739.60,1.60 0.00,1.60"/>
    </edge>
    <edge id="4to2" from="n4" to="n2" priority="2" type="TL2DE">
        <lane id="4to2_0" index="0" speed="15.00" length="739.60" shape="754.80,10.40 754.80,750.00"/>
        <lane id="4to2_1" index="1" speed="15.00" length="739.60" shape="751.60,10.40 751.60,750.00"/>
    </edge>
    <edge id="4to3" from="n4" to="n3" priority="2" type="TL2DE">
        <lane id="4to3_0" index="0" speed="15.00" length="739.60" shape="760.40,-4.80 1500.00,-4.80"/>
        <lane id="4to3_1" index="1" speed="15.00" length="739.60" shape="760.40,-1.60 1500.00,-1.60"/>
    </edge>

    <tlLogic id="n4" type="static" programID="0" offset="0">
        <phase duration="38" state="GrGGGg"/>
        <phase duration="3"  state="yryyyg"/>
        <phase duration="6"  state="rrrrGG"/>
        <phase duration="3"  state="rrrryy"/>
        <phase duration="37" state="GGGrGr"/>
        <phase duration="3"  state="yyyryr"/>
    </tlLogic>

    <junction id="n1" type="priority" x="0.00" y="0.00" incLanes="4to1_0 4to1_1" intLanes=":n1_0_0" shape="0.00,0.00 0.00,6.40 0.00,0.00">
        <request index="0" response="0" foes="0" cont="0"/>
    </junction>
    <junction id="n2" type="priority" x="750.00" y="750.00" incLanes="4to2_0 4to2_1" intLanes=":n2_0_0" shape="750.00,750.00 756.40,750.00 750.00,750.00">
        <request index="0" response="0" foes="0" cont="0"/>
    </junction>
    <junction id="n3" type="priority" x="1500.00" y="0.00" incLanes="4to3_0 4to3_1" intLanes=":n3_0_0" shape="1500.00,0.00 1500.00,-6.40 1500.00,0.00">
        <request index="0" response="0" foes="0" cont="0"/>
    </junction>
    <junction id="n4" type="traffic_light" x="750.00" y="0.00" incLanes="2to4_0 2to4_1 3to4_0 3to4_1 1to4_0 1to4_1" intLanes=":n4_0_0 :n4_1_0 :n4_2_0 :n4_3_0 :n4_4_0 :n4_6_0" shape="743.60,10.40 756.40,10.40 756.84,8.18 757.40,7.40 758.18,6.84 759.18,6.51 760.40,6.40 760.40,-6.40 739.60,-6.40 739.60,6.40 741.82,6.84 742.60,7.40 743.16,8.18 743.49,9.18">
        <request index="0" response="000000" foes="000000" cont="0"/>
        <request index="1" response="101000" foes="101000" cont="0"/>
        <request index="2" response="000000" foes="000000" cont="0"/>
        <request index="3" response="000000" foes="100010" cont="0"/>
        <request index="4" response="000000" foes="000000" cont="0"/>
        <request index="5" response="001000" foes="001010" cont="1"/>
    </junction>

    <junction id=":n4_6_0" type="internal" x="744.56" y="-0.89" incLanes=":n4_5_0 3to4_1" intLanes=":n4_1_0 :n4_3_0"/>

    <connection from="1to4" to="4to3" fromLane="0" toLane="0" via=":n4_4_0" tl="n4" linkIndex="4" dir="s" state="O"/>
    <connection from="1to4" to="4to2" fromLane="1" toLane="1" via=":n4_5_0" tl="n4" linkIndex="5" dir="l" state="o"/>
    <connection from="2to4" to="4to1" fromLane="0" toLane="0" via=":n4_0_0" tl="n4" linkIndex="0" dir="r" state="O"/>
    <connection from="2to4" to="4to3" fromLane="1" toLane="1" via=":n4_1_0" tl="n4" linkIndex="1" dir="l" state="o"/>
    <connection from="3to4" to="4to2" fromLane="0" toLane="0" via=":n4_2_0" tl="n4" linkIndex="2" dir="r" state="O"/>
    <connection from="3to4" to="4to1" fromLane="1" toLane="1" via=":n4_3_0" tl="n4" linkIndex="3" dir="s" state="O"/>
    <connection from="4to1" to="1to4" fromLane="1" toLane="1" via=":n1_0_0" dir="t" state="M"/>
    <connection from="4to2" to="2to4" fromLane="1" toLane="1" via=":n2_0_0" dir="t" state="M"/>
    <connection from="4to3" to="3to4" fromLane="1" toLane="1" via=":n3_0_0" dir="t" state="M"/>

    <connection from=":n1_0" to="1to4" fromLane="0" toLane="1" dir="t" state="M"/>
    <connection from=":n2_0" to="2to4" fromLane="0" toLane="1" dir="t" state="M"/>
    <connection from=":n3_0" to="3to4" fromLane="0" toLane="1" dir="t" state="M"/>
    <connection from=":n4_0" to="4to1" fromLane="0" toLane="0" dir="r" state="M"/>
    <connection from=":n4_1" to="4to3" fromLane="0" toLane="1" dir="l" state="M"/>
    <connection from=":n4_2" to="4to2" fromLane="0" toLane="0" dir="r" state="M"/>
    <connection from=":n4_3" to="4to1" fromLane="0" toLane="1" dir="s" state="M"/>
    <connection from=":n4_4" to="4to3" fromLane="0" toLane="0" dir="s" state="M"/>
    <connection from=":n4_5" to="4to2" fromLane="0" toLane="1" via=":n4_6_0" dir="l" state="m"/>
    <connection from=":n4_6" to="4to2" fromLane="0" toLane="1" dir="l" state="M"/>

</net>
