<routes>
            <vType accel="1.0" decel="4.5" id="standard_car" length="5.0" minGap="2.5" maxSpeed="25" sigma="0.5" />
            <route id="W_N" edges="1to4 4to2"/>
            <route id="W_E" edges="1to4 4to3"/>
            <route id="N_W" edges="2to4 4to1"/>
            <route id="N_E" edges="2to4 4to3"/>
            <route id="E_W" edges="3to4 4to1"/>
            <route id="E_N" edges="3to4 4to2"/>
<vehicle id="E_W_0" type="standard_car" route="E_W" depart="5.0" departLane="random" departSpeed="10" />
<vehicle id="E_W_1" type="standard_car" route="E_W" depart="9.0" departLane="random" departSpeed="10" />
<vehicle id="E_W_2" type="standard_car" route="E_W" depart="9.0" departLane="random" departSpeed="10" />
<vehicle id="N_E_3" type="standard_car" route="N_E" depart="10.0" departLane="random" departSpeed="10" />
<vehicle id="N_W_4" type="standard_car" route="N_W" depart="10.0" departLane="random" departSpeed="10" />
<vehicle id="E_W_5" type="standard_car" route="E_W" depart="13.0" departLane="random" departSpeed="10" />
<vehicle id="E_W_6" type="standard_car" route="E_W" depart="17.0" departLane="random" departSpeed="10" />
<vehicle id="W_E_7" type="standard_car" route="W_E" depart="17.0" departLane="random" departSpeed="10" />
<vehicle id="W_E_8" type="standard_car" route="W_E" depart="18.0" departLane="random" departSpeed="10" />
<vehicle id="E_W_9" type="standard_car" route="E_W" depart="20.0" departLane="random" departSpeed="10" />
<vehicle id="N_W_10" type="standard_car" route="N_W" depart="21.0" departLane="random" departSpeed="10" />
<vehicle id="N_W_11" type="standard_car" route="N_W" depart="21.0" departLane="random" departSpeed="10" />
<vehicle id="W_E_12" type="standard_car" route="W_E" depart="21.0" departLane="random" departSpeed="10" />
<vehicle id="W_E_13" type="standard_car" route="W_E" depart="22.0" departLane="random" departSpeed="10" />
<vehicle id="W_E_14" type="standard_car" route="W_E" depart="22.0" departLane="random" departSpeed="10" />
<vehicle id="W_E_15" type="standard_car" route="W_E" depart="23.0" departLane="random" departSpeed="10" />
<vehicle id="N_W_16" type="standard_car" route="N_W" depart="24.0" departLane="random" departSpeed="10" />
<vehicle id="N_E_17" type="standard_car" route="N_E" depart="24.0" departLane="random" departSpeed="10" />
<vehicle id="W_N_18" type="standard_car" route="W_N" depart="24.0" departLane="random" departSpeed="10" />
<vehicle id="E_W_19" type="standard_car" route="E_W" depart="25.0" departLane="random" departSpeed="10" />
<vehicle id="W_E_20" type="standard_car" route="W_E" depart="25.0" departLane="random" departSpeed="10" />
<vehicle id="W_E_21" type="standard_car" route="W_E" depart="25.0" departLane="random" departSpeed="10" />
<vehicle id="E_W_22" type="standard_car" route="E_W" depart="26.0" departLane="random" departSpeed="10" />
<vehicle id="W_E_23" type="standard_car" route="W_E" depart="26.0" departLane="random" departSpeed="10" />
<vehicle id="W_E_24" type="standard_car" route="W_E" depart="28.0" departLane="random" departSpeed="10" />
<vehicle id="N_W_25" type="standard_car" route="N_W" depart="28.0" departLane="random" departSpeed="10" />
<vehicle id="E_W_26" type="standard_car" route="E_W" depart="30.0" departLane="random" departSpeed="10" />
<vehicle id="W_E_27" type="standard_car" route="W_E" depart="31.0" departLane="random" departSpeed="10" />
<vehicle id="W_E_28" type="standard_car" route="W_E" depart="32.0" departLane="random" departSpeed="10" />
<vehicle id="E_W_29" type="standard_car" route="E_W" depart="32.0" departLane="random" departSpeed="10" />
<vehicle id="E_W_30" type="standard_car" route="E_W" depart="33.0" departLane="random" departSpeed="10" />
<vehicle id="E_W_31" type="standard_car" route="E_W" depart="35.0" departLane="random" departSpeed="10" />
<vehicle id="W_E_32" type="standard_car" route="W_E" depart="36.0" departLane="random" departSpeed="10" />
<vehicle id="E_W_33" type="standard_car" route="E_W" depart="36.0" departLane="random" departSpeed="10" />
<vehicle id="E_W_34" type="standard_car" route="E_W" depart="37.0" departLane="random" departSpeed="10" />
<vehicle id="E_W_35" type="standard_car" route="E_W" depart="37.0" departLane="random" departSpeed="10" />
<vehicle id="E_W_36" type="standard_car" route="E_W" depart="37.0" departLane="random" departSpeed="10" />
<vehicle id="W_E_37" type="standard_car" route="W_E" depart="38.0" departLane="random" departSpeed="10" />
<vehicle id="E_W_38" type="standard_car" route="E_W" depart="39.0" departLane="random" departSpeed="10" />
<vehicle id="E_W_39" type="standard_car" route="E_W" depart="39.0" departLane="random" departSpeed="10" />
<vehicle id="W_N_40" type="standard_car" route="W_N" depart="40.0" departLane="random" departSpeed="10" />
<vehicle id="W_E_41" type="standard_car" route="W_E" depart="40.0" departLane="random" departSpeed="10" />
<vehicle id="W_E_42" type="standard_car" route="W_E" depart="40.0" departLane="random" departSpeed="10" />
<vehicle id="E_W_43" type="standard_car" route="E_W" depart="40.0" departLane="random" departSpeed="10" />
<vehicle id="W_E_44" type="standard_car" route="W_E" depart="41.0" departLane="random" departSpeed="10" />
<vehicle id="E_W_45" type="standard_car" route="E_W" depart="41.0" departLane="random" departSpeed="10" />
<vehicle id="E_N_46" type="standard_car" route="E_N" depart="41.0" departLane="random" departSpeed="10" />
<vehicle id="W_E_47" type="standard_car" route="W_E" depart="44.0" departLane="random" departSpeed="10" />
<vehicle id="E_W_48" type="standard_car" route="E_W" depart="45.0" departLane="random" departSpeed="10" />
<vehicle id="W_N_49" type="standard_car" route="W_N" depart="45.0" departLane="random" departSpeed="10" />
<vehicle id="W_N_50" type="standard_car" route="W_N" depart="45.0" departLane="random" departSpeed="10" />
<vehicle id="W_E_51" type="standard_car" route="W_E" depart="46.0" departLane="random" departSpeed="10" />
<vehicle id="N_E_52" type="standard_car" route="N_E" depart="47.0" departLane="random" departSpeed="10" />
<vehicle id="W_N_53" type="standard_car" route="W_N" depart="49.0" departLane="random" departSpeed="10" />
<vehicle id="W_E_54" type="standard_car" route="W_E" depart="49.0" departLane="random" departSpeed="10" />
<vehicle id="W_E_55" type="standard_car" route="W_E" depart="49.0" departLane="random" departSpeed="10" />
<vehicle id="W_E_56" type="standard_car" route="W_E" depart="50.0" departLane="random" departSpeed="10" />
<vehicle id="E_W_57" type="standard_car" route="E_W" depart="50.0" departLane="random" departSpeed="10" />
<vehicle id="E_W_58" type="standard_car" route="E_W" depart="50.0" departLane="random" departSpeed="10" />
<vehicle id="E_W_59" type="standard_car" route="E_W" depart="50.0" departLane="random" departSpeed="10" />
<vehicle id="W_N_60" type="standard_car" route="W_N" depart="51.0" departLane="random" departSpeed="10" />
<vehicle id="W_E_61" type="standard_car" route="W_E" depart="51.0" departLane="random" departSpeed="10" />
<vehicle id="E_W_62" type="standard_car" route="E_W" depart="51.0" departLane="random" departSpeed="10" />
<vehicle id="E_W_63" type="standard_car" route="E_W" depart="51.0" departLane="random" departSpeed="10" />
<vehicle id="E_W_64" type="standard_car" route="E_W" depart="52.0" departLane="random" departSpeed="10" />
<vehicle id="W_E_65" type="standard_car" route="W_E" depart="52.0" departLane="random" departSpeed="10" />
<vehicle id="E_W_66" type="standard_car" route="E_W" depart="53.0" departLane="random" departSpeed="10" />
<vehicle id="W_E_67" type="standard_car" route="W_E" depart="53.0" departLane="random" departSpeed="10" />
<vehicle id="E_N_68" type="standard_car" route="E_N" depart="56.0" departLane="random" departSpeed="10" />
<vehicle id="W_E_69" type="standard_car" route="W_E" depart="57.0" departLane="random" departSpeed="10" />
<vehicle id="W_E_70" type="standard_car" route="W_E" depart="57.0" departLane="random" departSpeed="10" />
<vehicle id="W_E_71" type="standard_car" route="W_E" depart="58.0" departLane="random" departSpeed="10" />
<vehicle id="N_E_72" type="standard_car" route="N_E" depart="59.0" departLane="random" departSpeed="10" />
<vehicle id="E_W_73" type="standard_car" route="E_W" depart="59.0" departLane="random" departSpeed="10" />
<vehicle id="E_W_74" type="standard_car" route="E_W" depart="61.0" departLane="random" departSpeed="10" />
<vehicle id="E_W_75" type="standard_car" route="E_W" depart="61.0" departLane="random" departSpeed="10" />
<vehicle id="W_E_76" type="standard_car" route="W_E" depart="61.0" departLane="random" departSpeed="10" />
<vehicle id="W_N_77" type="standard_car" route="W_N" depart="61.0" departLane="random" departSpeed="10" />
<vehicle id="E_W_78" type="standard_car" route="E_W" depart="61.0" departLane="random" departSpeed="10" />
<vehicle id="E_W_79" type="standard_car" route="E_W" depart="61.0" departLane="random" departSpeed="10" />
<vehicle id="E_N_80" type="standard_car" route="E_N" depart="62.0" departLane="random" departSpeed="10" />
<vehicle id="W_E_81" type="standard_car" route="W_E" depart="62.0" departLane="random" departSpeed="10" />
<vehicle id="W_N_82" type="standard_car" route="W_N" depart="62.0" departLane="random" departSpeed="10" />
<vehicle id="E_N_83" type="standard_car" route="E_N" depart="62.0" departLane="random" departSpeed="10" />
<vehicle id="W_N_84" type="standard_car" route="W_N" depart="63.0" departLane="random" departSpeed="10" />
<vehicle id="E_W_85" type="standard_car" route="E_W" depart="63.0" departLane="random" departSpeed="10" />
<vehicle id="N_W_86" type="standard_car" route="N_W" depart="63.0" departLane="random" departSpeed="10" />
<vehicle id="N_W_87" type="standard_car" route="N_W" depart="64.0" departLane="random" departSpeed="10" />
<vehicle id="E_W_88" type="standard_car" route="E_W" depart="64.0" departLane="random" departSpeed="10" />
<vehicle id="E_N_89" type="standard_car" route="E_N" depart="64.0" departLane="random" departSpeed="10" />
<vehicle id="E_W_90" type="standard_car" route="E_W" depart="65.0" departLane="random" departSpeed="10" />
<vehicle id="E_N_91" type="standard_car" route="E_N" depart="65.0" departLane="random" departSpeed="10" />
<vehicle id="E_W_92" type="standard_car" route="E_W" depart="65.0" departLane="random" departSpeed="10" />
<vehicle id="E_W_93" type="standard_car" route="E_W" depart="65.0" departLane="random" departSpeed="10" />
<vehicle id="E_W_94" type="standard_car" route="E_W" depart="67.0" departLane="random" departSpeed="10" />
<vehicle id="W_E_95" type="standard_car" route="W_E" depart="68.0" departLane="random" departSpeed="10" />
<vehicle id="W_E_96" type="standard_car" route="W_E" depart="68.0" departLane="random" departSpeed="10" />
<vehicle id="W_N_97" type="standard_car" route="W_N" depart="69.0" departLane="random" departSpeed="10" />
<vehicle id="W_N_98" type="standard_car" route="W_N" depart="69.0" departLane="random" departSpeed="10" />
<vehicle id="E_W_99" type="standard_car" route="E_W" depart="69.0" departLane="random" departSpeed="10" />
<vehicle id="E_N_100" type="standard_car" route="E_N" depart="69.0" departLane="random" departSpeed="10" />
<vehicle id="E_W_101" type="standard_car" route="E_W" depart="69.0" departLane="random" departSpeed="10" />
<vehicle id="E_W_102" type="standard_car" route="E_W" depart="70.0" departLane="random" departSpeed="10" />
<vehicle id="E_N_103" type="standard_car" route="E_N" depart="70.0" departLane="random" departSpeed="10" />
<vehicle id="W_E_104" type="standard_car" route="W_E" depart="70.0" departLane="random" departSpeed="10" />
<vehicle id="N_E_105" type="standard_car" route="N_E" depart="71.0" departLane="random" departSpeed="10" />
<vehicle id="E_W_106" type="standard_car" route="E_W" depart="71.0" departLane="random" departSpeed="10" />
<vehicle id="W_E_107" type="standard_car" route="W_E" depart="72.0" departLane="random" departSpeed="10" />
<vehicle id="E_W_108" type="standard_car" route="E_W" depart="72.0" departLane="random" departSpeed="10" />
<vehicle id="W_E_109" type="standard_car" route="W_E" depart="73.0" departLane="random" departSpeed="10" />
<vehicle id="E_W_110" type="standard_car" route="E_W" depart="73.0" departLane="random" departSpeed="10" />
<vehicle id="E_N_111" type="standard_car" route="E_N" depart="74.0" departLane="random" departSpeed="10" />
<vehicle id="W_N_112" type="standard_car" route="W_N" depart="75.0" departLane="random" departSpeed="10" />
<vehicle id="W_E_113" type="standard_car" route="W_E" depart="75.0" departLane="random" departSpeed="10" />
<vehicle id="W_E_114" type="standard_car" route="W_E" depart="75.0" departLane="random" departSpeed="10" />
<vehicle id="E_W_115" type="standard_car" route="E_W" depart="76.0" departLane="random" departSpeed="10" />
<vehicle id="E_W_116" type="standard_car" route="E_W" depart="77.0" departLane="random" departSpeed="10" />
<vehicle id="E_W_117" type="standard_car" route="E_W" depart="77.0" departLane="random" departSpeed="10" />
<vehicle id="W_E_118" type="standard_car" route="W_E" depart="81.0" departLane="random" departSpeed="10" />
<vehicle id="E_W_119" type="standard_car" route="E_W" depart="82.0" departLane="random" departSpeed="10" />
<vehicle id="W_E_120" type="standard_car" route="W_E" depart="82.0" departLane="random" departSpeed="10" />
<vehicle id="W_E_121" type="standard_car" route="W_E" depart="84.0" departLane="random" departSpeed="10" />
<vehicle id="E_W_122" type="standard_car" route="E_W" depart="84.0" departLane="random" departSpeed="10" />
<vehicle id="E_N_123" type="standard_car" route="E_N" depart="85.0" departLane="random" departSpeed="10" />
<vehicle id="E_W_124" type="standard_car" route="E_W" depart="86.0" departLane="random" departSpeed="10" />
<vehicle id="E_W_125" type="standard_car" route="E_W" depart="87.0" departLane="random" departSpeed="10" />
<vehicle id="W_E_126" type="standard_car" route="W_E" depart="89.0" departLane="random" departSpeed="10" />
<vehicle id="W_E_127" type="standard_car" route="W_E" depart="89.0" departLane="random" departSpeed="10" />
<vehicle id="W_E_128" type="standard_car" route="W_E" depart="90.0" departLane="random" departSpeed="10" />
<vehicle id="E_W_129" type="standard_car" route="E_W" depart="91.0" departLane="random" departSpeed="10" />
<vehicle id="E_W_130" type="standard_car" route="E_W" depart="95.0" departLane="random" departSpeed="10" />
<vehicle id="N_E_131" type="standard_car" route="N_E" depart="97.0" departLane="random" departSpeed="10" />
<vehicle id="E_W_132" type="standard_car" route="E_W" depart="97.0" departLane="random" departSpeed="10" />
<vehicle id="W_E_133" type="standard_car" route="W_E" depart="99.0" departLane="random" departSpeed="10" />
<vehicle id="W_E_134" type="standard_car" route="W_E" depart="99.0" departLane="random" departSpeed="10" />
<vehicle id="W_E_135" type="standard_car" route="W_E" depart="100.0" departLane="random" departSpeed="10" />
<vehicle id="E_W_136" type="standard_car" route="E_W" depart="106.0" departLane="random" departSpeed="10" />
<vehicle id="W_E_137" type="standard_car" route="W_E" depart="107.0" departLane="random" departSpeed="10" />
<vehicle id="E_W_138" type="standard_car" route="E_W" depart="109.0" departLane="random" departSpeed="10" />
<vehicle id="W_E_139" type="standard_car" route="W_E" depart="113.0" departLane="random" departSpeed="10" />
<vehicle id="W_E_140" type="standard_car" route="W_E" depart="113.0" departLane="random" departSpeed="10" />
<vehicle id="E_W_141" type="standard_car" route="E_W" depart="116.0" departLane="random" departSpeed="10" />
<vehicle id="E_W_142" type="standard_car" route="E_W" depart="118.0" departLane="random" departSpeed="10" />
<vehicle id="E_W_143" type="standard_car" route="E_W" depart="121.0" departLane="random" departSpeed="10" />
<vehicle id="W_E_144" type="standard_car" route="W_E" depart="121.0" departLane="random" departSpeed="10" />
<vehicle id="W_E_145" type="standard_car" route="W_E" depart="129.0" departLane="random" departSpeed="10" />
<vehicle id="W_E_146" type="standard_car" route="W_E" depart="129.0" departLane="random" departSpeed="10" />
<vehicle id="W_E_147" type="standard_car" route="W_E" depart="131.0" departLane="random" departSpeed="10" />
<vehicle id="W_N_148" type="standard_car" route="W_N" depart="141.0" departLane="random" departSpeed="10" />
<vehicle id="W_E_149" type="standard_car" route="W_E" depart="173.0" departLane="random" departSpeed="10" />
</routes>
